LTspice 24.1.7 for Windows
Circuit: D:\electro-robot\LTSpice\pont_graetz.net
Start Time: Fri May  9 20:21:06 2025
solver = Normal
Maximum thread count: 8
tnom = 27
temp = 27
method = trap
.OP point found by inspection.
Total elapsed time: 0.438 seconds.

Files loaded:
D:\electro-robot\LTSpice\pont_graetz.net
C:\Users\bkhro\AppData\Local\LTspice\lib\cmp\standard.dio

